CRYSTAL
PRIMVEC
 3.16021000000000 0.00000000000000 0.00000000000000
 -1.58010500000000 2.73682214129362 0.00000000000000
 0.00000000000000 0.00000000000000 30.00000000000000
PRIMCOORD
 6 1
 42     0.00000000000000     0.00000000000000     3.58592600000000
 16     0.00000000000000     1.82491300129362     2.00000000000000
 16     0.00000000000000     1.82491300129362     5.17185200000000
 42     0.00000000000000     0.00000000000000     9.75777800000000
 16     0.00000000000000     1.82491300129362     8.17185200000000
 16     0.00000000000000     1.82491300129362    11.34370400000000
