CRYSTAL
PRIMVEC
 3.16021000000000 0.00000000000000 0.00000000000000
 -1.58010500000000 2.73682214129362 0.00000000000000
 0.00000000000000 0.00000000000000 30.00000000000000
PRIMCOORD
 6 1
 42     0.00000000000000     0.00000000000000     2.00000000000000
 16     1.58010500000000    -0.91190914000000     0.41407400000000
 16     1.58010500000000    -0.91190914000000     3.58592600000000
 42     0.00000000000000     0.00000000000000     8.17185200000000
 16     1.58010500000000    -0.91190914000000     6.58592600000000
 16     1.58010500000000    -0.91190914000000     9.75777800000000
