244
Lattice="102.44026320717455 0.0 0.0 0.2085002143190911 4.616854393873483 0.0 0.0 0.0 30.0" Properties=species:S:1:pos:R:3:spacegroup_kinds:I:1:atom_types:I:1 spacegroup="P 1" unit_cell=conventional occupancy="_JSON {\"0\": {\"P\": 1.0}, \"1\": {\"P\": 1.0}, \"2\": {\"P\": 1.0}, \"3\": {\"P\": 1.0}}" pbc="T T T"
P        0.41295107      -0.40338602      13.00603685        0        0
P        2.12813128       1.00194522      12.94311623        1        1
P        0.50255596       3.40340142      10.92936631        2        2
P        2.07080342       1.81404944      10.86359687        3        3
P        5.39675287       0.80415856      12.84237495        1        1
P        3.80218452       3.21022309      10.80039849        2        2
P        5.36772631       1.61566076      10.76147567        3        3
P        3.88773289       4.02008901      12.87840119        0        0
P        8.66545992       0.59988178      12.79425659        1        1
P        7.10149356       3.00821482      10.72501862        2        2
P        8.66489202       1.41119786      10.71261321        3        3
P        7.15381479       3.81797084      12.80377184        0        0
P       11.93890007       0.39572371      12.78813738        1        1
P       10.39764237       2.80402016      10.69988262        2        2
P       11.95954082       1.20708030      10.70645743        3        3
P       10.42465121       3.61383117      12.77888251        0        0
P       15.22009817       0.19625086      12.80345770        1        1
P       13.68903978       2.60294232      10.70861506        2        2
P       15.25030258       1.00763449      10.72222974        3        3
P       13.70350664       3.41307720      12.78776975        0        0
P       18.50884780       0.00232798      12.81865749        1        1
P       16.97635456       2.40716101      10.72872481        2        2
P       18.53760660       0.81353557      10.73810108        3        3
P       16.99062944       3.21783860      12.80825557        0        0
P       21.80129160      -0.18884713      12.82049115        1        1
P       20.26180160       2.21514459      10.74132783        2        2
P       21.82306434       0.62192583      10.74060814        3        3
P       20.28268090       3.02634460      12.82147861        0        0
P       25.09165307      -0.38176159      12.80915084        1        1
P       23.54782097       2.02285756      10.73878831        2        2
P       25.10891589       0.42844370      10.72977220        3        3
P       23.57403178       2.83434664      12.81965123        0        0
P       28.37510607      -0.57973747      12.79803403        1        1
P       26.83637512       1.82633427      10.72750493        2        2
P       28.39760055       0.23001818      10.71891541        3        3
P       26.85949973       2.63784745      12.80896553        0        0
P       31.64997493      -0.78269870      12.80835260        1        1
P       30.12856775       1.62428721      10.72551537        2        2
P       31.69073325       0.02688434      10.72940705        3        3
P       30.13687562       2.43569414      12.80721603        0        0
P       33.42400573       1.41925984      10.75501115        2        2
P       34.98791813      -0.17710957      10.78156126        3        3
P       33.40763233       2.23066047      12.83634026        0        0
P       35.12657844       3.63010280      12.86003202        1        1
P       36.72057513       1.21682189      10.83245727        2        2
P       38.28683395      -0.37577962      10.88582026        3        3
P       36.67574577       2.02854407      12.91271193        0        0
P       38.39213739       3.43125097      12.96323501        1        1
P       40.01552358       1.02361667      10.96151516        2        2
P       41.58488486      -0.56259451      11.03852651        3        3
P       39.94612059       1.83612581      13.04026207        0        0
P       41.66047311       3.24415326      13.11447682        1        1
P       43.30733450       0.84535005      11.13195374        2        2
P       44.88104415      -0.73253641      11.22377273        3        3
P       43.22346212       1.65908848      13.20929439        0        0
P       44.93671827       3.07374734      13.29836755        1        1
P       46.59685016       0.68537536      11.32430853        2        2
P       48.17634142      -0.88331984      11.42007313        3        3
P       46.51122452       1.50056439      13.40076818        0        0
P       48.22428038       2.92224648      13.49385942        1        1
P       49.88664979       0.54421253      11.51755381        2        2
P       51.47279970      -1.01558552      11.60809114        3        3
P       49.81060933       1.36074966      13.59371809        0        0
P       51.52380984       2.78906480      13.68172273        1        1
P       53.17933923       0.42004501      11.69544871        2        2
P       53.12046718       1.23758901      13.77170372        0        0
P       54.83368136       2.67162122      13.84892519        1        1
P       54.98054363       3.48480476      11.77495146        3        3
P       56.47633322       0.30976720      11.84846270        2        2
P       56.43838394       1.12790644      13.92496164        0        0
P       58.15141871       2.56647049      13.98856574        1        1
P       58.28319222       3.38060787      11.91399373        3        3
P       59.77777288       0.20997785      11.97214167        2        2
P       59.76193498       1.02834074      14.04887618        0        0
P       61.47474164       2.47021946      14.09765795        1        1
P       61.58902832       3.28526125      12.02242992        3        3
P       63.08302251       0.11758440      12.06475520        2        2
P       63.08922759       0.93587263      14.14162860        0        0
P       64.80186178       2.37997713      14.17513151        1        1
P       64.89738245       3.19586839      12.09930943        3        3
P       66.39112920       0.03001279      12.12575439        2        2
P       66.41885676       0.84799690      14.20263071        0        0
P       68.13139335       2.29341479      14.22071228        1        1
P       68.20740020       3.11008760      12.14441578        3        3
P       69.70106787      -0.05483704      12.15504011        2        2
P       69.74970387       0.76266810      14.23177072        0        0
P       71.46219956       2.20862804      14.23441542        1        1
P       71.51815923       3.02599160      12.15778677        3        3
P       73.01182933      -0.13875460      12.15265685        2        2
P       73.08077487       0.67813819      14.22909256        0        0
P       74.79327224       2.12393487      14.21633578        1        1
P       74.82870140       2.94186882      12.13952402        3        3
P       76.32243773      -0.22342222      12.11867591        2        2
P       76.41109151       0.59275728      14.19467341        0        0
P       78.12363922       2.03766489      14.16658562        1        1
P       78.13803468       2.85601195      12.08973928        3        3
P       79.63194982      -0.31062639      12.05318704        2        2
P       79.73960153       0.50476450      14.12861887        0        0
P       81.45226961       1.94795314      14.08534351        1        1
P       81.44513637       2.76650838      12.00860253        3        3
P       82.93946648      -0.40246695      11.95639977        2        2
P       83.06507569       0.41207766      14.03117768        0        0
P       84.77794287       1.85255202      13.97304576        1        1
P       84.74899540       2.67104834      11.89652351        3        3
P       86.38596670       0.31210898      13.90305644        0        0
P       88.09905639       1.74870597      13.83086492        1        1
P       86.45269693       4.11531576      11.82893434        2        2
P       88.04876282       2.56680243      11.75461150        3        3
P       89.70025825       0.20169574      13.74616558        0        0
P       91.41345121       1.63318582      13.66180484        1        1
P       89.75414125       4.00584316      11.67254164        2        2
P       91.34410177       2.45047575      11.58574590        3        3
P       93.00549840       0.07732119      13.56515888        0        0
P       94.71858424       1.50261429      13.47273077        1        1
P       93.05243642       3.88240366      11.49164584        2        2
P       94.63571926       2.31869127      11.39658931        3        3
P       96.29942652      -0.06420490      13.36975060        0        0
P       98.01245138       1.35419131      13.27669724        1        1
P       96.34870727       3.74168492      11.29574088        2        2
P       97.92568879       2.16879850      11.19995723        3        3
P       99.58133187      -0.22466793      13.17632873        0        0
P      101.29493525       1.18678217      13.09307499        1        1
P       99.64492238       3.58178600      11.10117042        2        2
P      101.21683373       1.99996504      11.01512310        3        3
P       -0.34134658       0.44124805      18.35578319        0        4
P        1.37748055       1.93134045      18.30010444        1        5
P       -0.29664721       4.21877515      16.29209027        2        6
P        1.41362244       2.76977036      16.22875018        3        7
P        3.08037490       0.48166915      18.26029944        0        4
P        4.79789057       1.97681456      18.21974984        1        5
P        3.14092494       4.25859516      16.19575066        2        6
P        4.85703187       2.81581946      16.14842456        3        7
P        6.50486326       0.53171036      18.19754760        0        4
P        8.22227659       2.02884694      18.17147624        1        5
P        6.58318465       4.30880697      16.13200219        2        6
P        8.30059384       2.86801863      16.10043932        3        7
P        9.93071531       0.58492789      18.16403430        0        4
P       11.64901017       2.08139764      18.15008418        1        5
P       10.02538882       4.36270969      16.09749698        2        6
P       11.74030172       2.92023823      16.07951290        3        7
P       13.35703286       0.63621691      18.15215061        0        4
P       15.07677351       2.13053877      18.14684294        1        5
P       13.46372962       4.41476899      16.08469973        2        6
P       15.17431471       2.96875878      16.07686862        3        7
P       16.78376340       0.68332213      18.15197300        0        4
P       18.50479175       2.17563536      18.15164272        1        5
P       16.89663624       4.46236106      16.08370060        2        6
P       18.60363506       3.01332446      16.08235660        3        7
P       20.21118945       0.72721594      18.15463180        0        4
P       21.93259160       2.21900919      18.15709019        1        5
P       20.32540892       4.50629748      16.08560599        2        6
P       22.03155589       3.05654340      16.08854585        3        7
P       23.63928740       0.77103773      18.15658843        0        4
P       25.35993911       2.26412614      18.16240867        1        5
P       23.75351040       4.54973610      16.08686387        2        6
P       25.46199027       3.10197563      16.09465862        3        7
P       27.06766229       0.81797585      18.16162056        0        4
P       28.78696231       2.31328554      18.17369891        1        5
P       27.18478979       4.59605336      16.09127824        2        6
P       28.89750377       3.15184903      16.10682251        3        7
P       30.49566884       0.86905963      18.17855395        0        4
P       32.21381174       2.36594121      18.20045508        1        5
P       30.62155959       4.64663183      16.10771494        2        6
P       32.33799714       3.20534608      16.13453743        3        7
P       33.92222858       0.92200611      18.21686504        0        4
P       35.63998590       2.41835073      18.25148912        1        5
P       34.06343228       4.69950702      16.14567941        2        6
P       35.78071143       3.25829710      16.18656728        3        7
P       37.34576193       0.97168329      18.28353292        0        4
P       39.06421494       2.46456357      18.33244764        1        5
P       37.50742867       4.74960599      16.21220151        2        6
P       39.22127545       3.30438098      16.26844870        3        7
P       40.76474572       1.01174522      18.38155896        0        4
P       42.48514848       2.49823357      18.44434223        1        5
P       40.94901182       4.79037294      16.31036212        2        6
P       42.65507414       3.33712953      16.38101407        3        7
P       44.17860366       1.03659641      18.50875114        0        4
P       45.90219521       2.51458877      18.58227417        1        5
P       44.38347517       4.81589525      16.43798256        2        6
P       46.07868817       3.35195770      16.51914633        3        7
P       47.58812073       1.04298488      18.65690791        0        4
P       49.31575220       2.51179786      18.73542891        1        5
P       47.80746478       4.82273919      16.58670136        2        6
P       49.49099892       3.34743922      16.67188764        3        7
P       50.99490106       1.03064941      18.81305962        0        4
P       52.72668848       2.49105386      18.88970120        1        5
P       51.22006178       4.81073072      16.74327749        2        6
P       52.89318744       3.32517960      16.82519177        3        7
P       54.40036931       1.00180888      18.96305281        0        4
P       56.13571257       2.45548153      19.03175207        1        5
P       54.62262785       4.78229038      16.89339400        2        6
P       56.28769404       3.28854195      16.96596412        3        7
P       57.80524114       0.95994894      19.09520240        0        4
P       59.54318785       2.40877071      19.15178566        1        5
P       58.01764304       4.74100179      17.02541549        2        6
P       59.67706262       3.24125373      17.08468891        3        7
P       61.20967808       0.90867942      19.20184417        0        4
P       62.94929923       2.35428846      19.24398259        1        5
P       61.40756816       4.69044102      17.13184212        2        6
P       63.06331346       3.18660772      17.17574295        3        7
P       64.61367256       0.85111900      19.27886113        0        4
P       66.35424205       2.29478594      19.30549128        1        5
P       64.79430799       4.63364160      17.20871050        2        6
P       66.44784221       3.12725638      17.23636619        3        7
P       68.01729433       0.78977359      19.32443644        0        4
P       69.75829366       2.23246562      19.33517843        1        5
P       68.17917230       4.57302942      17.25430201        2        6
P       69.83157910       3.06531854      17.26544622        3        7
P       71.42075204       0.72667509      19.33795305        0        4
P       73.16179283       2.16918441      19.33273401        1        5
P       71.56304697       4.51057416      17.26805405        2        6
P       73.21520355       3.00258736      17.26265997        3        7
P       74.82435868       0.66360529      19.31933923        0        4
P       76.56508260       2.10668696      19.29823802        1        5
P       74.94659728       4.44800426      17.24992676        2        6
P       76.59934009       2.94075446      17.22805947        3        7
P       78.22846893       0.60233272      19.26885613        0        4
P       79.96844475       2.04684264      19.23214763        1        5
P       78.33045410       4.38703092      17.20020015        2        6
P       79.98474081       2.88163412      17.16205833        3        7
P       81.63341496       0.54484881      19.18729588        0        4
P       83.37204387       1.99188101      19.13570455        1        5
P       81.71539986       4.32957255      17.11966383        2        6
P       83.37248172       2.82738683      17.06582282        3        7
P       85.03946039       0.49359550      19.07662577        0        4
P       86.77592511       1.94459313      19.01180919        1        5
P       85.10257836       4.27797729      17.01023295        2        6
P       86.76416668       2.78071789      16.94212521        3        7
P       88.44681338       0.45162711      18.94109028        0        4
P       90.18015249       1.90837837      18.86627064        1        5
P       88.49370277       4.23520263      16.87601036        2        6
P       90.16203477       2.74495578      16.79660288        3        7
P       91.85575526       0.42254466      18.78848000        0        4
P       93.58514337       1.88691682      18.70886463        1        5
P       91.89112838       4.20481260      16.72454016        2        6
P       93.56872163       2.72380171      16.63890357        3        7
P       95.26684927       0.40994094      18.63064968        0        4
P       96.99200992       1.88327878      18.55299543        1        5
P       95.29752668       4.19052378      16.56739397        2        6
P       96.98640585       2.72049057      16.48248684        3        7
P       98.68097905       0.41622577      18.48200311        0        4
P      100.40241920       1.89864891      18.41299891        1        5
P       98.71495666       4.19508112      16.41881070        2        6
P      100.41551104       2.73638862      16.34194185        3        7
