CRYSTAL
PRIMVEC
 85.32567000000000 0.00000000000000 0.00000000000000
 -1.64100000000000 2.84229537522053 0.00000000000000
 0.00000000000000 0.00000000000000 30.00000000000000
PRIMCOORD
 159 1
 42     0.00000000000000     0.00000000000000    11.91407400000000
 16     0.00000000000000     1.82491300000000    10.32814800000000
 16     0.00000000000000     1.82491300000000    13.50000000000000
 42     3.16021000000000     0.00000000000000    11.91407400000000
 16     3.16021000000000     1.82491300000000    10.32814800000000
 16     3.16021000000000     1.82491300000000    13.50000000000000
 42     6.32042000000000     0.00000000000000    11.91407400000000
 16     6.32042000000000     1.82491300000000    10.32814800000000
 16     6.32042000000000     1.82491300000000    13.50000000000000
 42     9.48063000000000     0.00000000000000    11.91407400000000
 16     9.48063000000000     1.82491300000000    10.32814800000000
 16     9.48063000000000     1.82491300000000    13.50000000000000
 42    12.64084000000000     0.00000000000000    11.91407400000000
 16    12.64084000000000     1.82491300000000    10.32814800000000
 16    12.64084000000000     1.82491300000000    13.50000000000000
 42    15.80105000000000     0.00000000000000    11.91407400000000
 16    15.80105000000000     1.82491300000000    10.32814800000000
 16    15.80105000000000     1.82491300000000    13.50000000000000
 42    18.96126000000000     0.00000000000000    11.91407400000000
 16    18.96126000000000     1.82491300000000    10.32814800000000
 16    18.96126000000000     1.82491300000000    13.50000000000000
 42    22.12147000000000     0.00000000000000    11.91407400000000
 16    22.12147000000000     1.82491300000000    10.32814800000000
 16    22.12147000000000     1.82491300000000    13.50000000000000
 42    25.28168000000000     0.00000000000000    11.91407400000000
 16    25.28168000000000     1.82491300000000    10.32814800000000
 16    25.28168000000000     1.82491300000000    13.50000000000000
 42    28.44189000000000     0.00000000000000    11.91407400000000
 16    28.44189000000000     1.82491300000000    10.32814800000000
 16    28.44189000000000     1.82491300000000    13.50000000000000
 42    31.60210000000000     0.00000000000000    11.91407400000000
 16    31.60210000000000     1.82491300000000    10.32814800000000
 16    31.60210000000000     1.82491300000000    13.50000000000000
 42    34.76231000000000     0.00000000000000    11.91407400000000
 16    34.76231000000000     1.82491300000000    10.32814800000000
 16    34.76231000000000     1.82491300000000    13.50000000000000
 42    37.92252000000000     0.00000000000000    11.91407400000000
 16    37.92252000000000     1.82491300000000    10.32814800000000
 16    37.92252000000000     1.82491300000000    13.50000000000000
 42    41.08273000000000     0.00000000000000    11.91407400000000
 16    41.08273000000000     1.82491300000000    10.32814800000000
 16    41.08273000000000     1.82491300000000    13.50000000000000
 42    44.24294000000000     0.00000000000000    11.91407400000000
 16    44.24294000000000     1.82491300000000    10.32814800000000
 16    44.24294000000000     1.82491300000000    13.50000000000000
 42    47.40315000000000     0.00000000000000    11.91407400000000
 16    47.40315000000000     1.82491300000000    10.32814800000000
 16    47.40315000000000     1.82491300000000    13.50000000000000
 42    50.56336000000000     0.00000000000000    11.91407400000000
 16    50.56336000000000     1.82491300000000    10.32814800000000
 16    50.56336000000000     1.82491300000000    13.50000000000000
 42    53.72357000000000     0.00000000000000    11.91407400000000
 16    53.72357000000000     1.82491300000000    10.32814800000000
 16    53.72357000000000     1.82491300000000    13.50000000000000
 42    56.88378000000000     0.00000000000000    11.91407400000000
 16    56.88378000000000     1.82491300000000    10.32814800000000
 16    56.88378000000000     1.82491300000000    13.50000000000000
 42    60.04399000000000     0.00000000000000    11.91407400000000
 16    60.04399000000000     1.82491300000000    10.32814800000000
 16    60.04399000000000     1.82491300000000    13.50000000000000
 42    63.20420000000000     0.00000000000000    11.91407400000000
 16    63.20420000000000     1.82491300000000    10.32814800000000
 16    63.20420000000000     1.82491300000000    13.50000000000000
 42    66.36441000000001     0.00000000000000    11.91407400000000
 16    66.36441000000001     1.82491300000000    10.32814800000000
 16    66.36441000000001     1.82491300000000    13.50000000000000
 42    69.52462000000000     0.00000000000000    11.91407400000000
 16    69.52462000000000     1.82491300000000    10.32814800000000
 16    69.52462000000000     1.82491300000000    13.50000000000000
 42    72.68483000000001     0.00000000000000    11.91407400000000
 16    72.68483000000001     1.82491300000000    10.32814800000000
 16    72.68483000000001     1.82491300000000    13.50000000000000
 42    75.84504000000000     0.00000000000000    11.91407400000000
 16    75.84504000000000     1.82491300000000    10.32814800000000
 16    75.84504000000000     1.82491300000000    13.50000000000000
 42    79.00525000000000     0.00000000000000    11.91407400000000
 16    79.00525000000000     1.82491300000000    10.32814800000000
 16    79.00525000000000     1.82491300000000    13.50000000000000
 42    82.16546000000000     0.00000000000000    11.91407400000000
 16    82.16546000000000     1.82491300000000    10.32814800000000
 16    82.16546000000000     1.82491300000000    13.50000000000000
 74     0.00000000000000     0.00000000000000    18.08592600000000
 34    -0.00008117000000     1.89524256000000    16.41538200000000
 34    -0.00008117000000     1.89524256000000    19.75647000000000
 74     3.28175654000000     0.00000000000000    18.08592600000000
 34     3.28167537000000     1.89524256000000    16.41538200000000
 34     3.28167537000000     1.89524256000000    19.75647000000000
 74     6.56351308000000     0.00000000000000    18.08592600000000
 34     6.56343191000000     1.89524256000000    16.41538200000000
 34     6.56343191000000     1.89524256000000    19.75647000000000
 74     9.84526962000000     0.00000000000000    18.08592600000000
 34     9.84518845000000     1.89524256000000    16.41538200000000
 34     9.84518845000000     1.89524256000000    19.75647000000000
 74    13.12702615000000     0.00000000000000    18.08592600000000
 34    13.12694498000000     1.89524256000000    16.41538200000000
 34    13.12694498000000     1.89524256000000    19.75647000000000
 74    16.40878269000000     0.00000000000000    18.08592600000000
 34    16.40870152000000     1.89524256000000    16.41538200000000
 34    16.40870152000000     1.89524256000000    19.75647000000000
 74    19.69053923000000     0.00000000000000    18.08592600000000
 34    19.69045806000000     1.89524256000000    16.41538200000000
 34    19.69045806000000     1.89524256000000    19.75647000000000
 74    22.97229577000000     0.00000000000000    18.08592600000000
 34    22.97221460000000     1.89524256000000    16.41538200000000
 34    22.97221460000000     1.89524256000000    19.75647000000000
 74    26.25405231000000     0.00000000000000    18.08592600000000
 34    26.25397114000000     1.89524256000000    16.41538200000000
 34    26.25397114000000     1.89524256000000    19.75647000000000
 74    29.53580885000000     0.00000000000000    18.08592600000000
 34    29.53572768000000     1.89524256000000    16.41538200000000
 34    29.53572768000000     1.89524256000000    19.75647000000000
 74    32.81756538000000     0.00000000000000    18.08592600000000
 34    32.81748421000000     1.89524256000000    16.41538200000000
 34    32.81748421000000     1.89524256000000    19.75647000000000
 74    36.09932192000000     0.00000000000000    18.08592600000000
 34    36.09924075000000     1.89524256000000    16.41538200000000
 34    36.09924075000000     1.89524256000000    19.75647000000000
 74    39.38107846000000     0.00000000000000    18.08592600000000
 34    39.38099729000000     1.89524256000000    16.41538200000000
 34    39.38099729000000     1.89524256000000    19.75647000000000
 74    42.66283500000000     0.00000000000000    18.08592600000000
 34    42.66275383000000     1.89524256000000    16.41538200000000
 34    42.66275383000000     1.89524256000000    19.75647000000000
 74    45.94459154000000     0.00000000000000    18.08592600000000
 34    45.94451037000000     1.89524256000000    16.41538200000000
 34    45.94451037000000     1.89524256000000    19.75647000000000
 74    49.22634808000000     0.00000000000000    18.08592600000000
 34    49.22626691000000     1.89524256000000    16.41538200000000
 34    49.22626691000000     1.89524256000000    19.75647000000000
 74    52.50810462000000     0.00000000000000    18.08592600000000
 34    52.50802345000000     1.89524256000000    16.41538200000000
 34    52.50802345000000     1.89524256000000    19.75647000000000
 74    55.78986115000000     0.00000000000000    18.08592600000000
 34    55.78977998000000     1.89524256000000    16.41538200000000
 34    55.78977998000000     1.89524256000000    19.75647000000000
 74    59.07161769000000     0.00000000000000    18.08592600000000
 34    59.07153652000000     1.89524256000000    16.41538200000000
 34    59.07153652000000     1.89524256000000    19.75647000000000
 74    62.35337423000000     0.00000000000000    18.08592600000000
 34    62.35329306000000     1.89524256000000    16.41538200000000
 34    62.35329306000000     1.89524256000000    19.75647000000000
 74    65.63513077000000     0.00000000000000    18.08592600000000
 34    65.63504960000000     1.89524256000000    16.41538200000000
 34    65.63504960000000     1.89524256000000    19.75647000000000
 74    68.91688731000001     0.00000000000000    18.08592600000000
 34    68.91680614000001     1.89524256000000    16.41538200000000
 34    68.91680614000001     1.89524256000000    19.75647000000000
 74    72.19864385000000     0.00000000000000    18.08592600000000
 34    72.19856267999999     1.89524256000000    16.41538200000000
 34    72.19856267999999     1.89524256000000    19.75647000000000
 74    75.48040038000001     0.00000000000000    18.08592600000000
 34    75.48031921000000     1.89524256000000    16.41538200000000
 34    75.48031921000000     1.89524256000000    19.75647000000000
 74    78.76215692000000     0.00000000000000    18.08592600000000
 34    78.76207574999999     1.89524256000000    16.41538200000000
 34    78.76207574999999     1.89524256000000    19.75647000000000
 74    82.04391346000000     0.00000000000000    18.08592600000000
 34    82.04383229000000     1.89524256000000    16.41538200000000
 34    82.04383229000000     1.89524256000000    19.75647000000000
