CRYSTAL
PRIMVEC
 3.16021000000000 0.00000000000000 0.00000000000000
 -1.58010500000000 2.73682214129362 0.00000000000000
 0.00000000000000 0.00000000000000 19.57178440000000
PRIMCOORD
 3 1
 42     0.00000000000000     1.82436563938633     0.00000000000000
 16     1.58010500000000     0.91245650190729    -1.58592600000000
 16     1.58010500000000     0.91245650190729     1.58592600000000
