CRYSTAL
PRIMVEC
 3.28900000000000 0.00000000000000 0.00000000000000
 -1.64450000000000 2.84835755304702 0.00000000000000
 0.00000000000000 0.00000000000000 19.57178440000000
PRIMCOORD
 3 1
 42     0.00000000000000     1.89871514486114     6.31350000000000
 34     1.64450000000000     0.94964240818588     4.64114160000000
 34     1.64450000000000     0.94964240818588     7.98585840000000
