153
Lattice="79.00525 0.0 0.0 -1.5801049999999994 2.7368221412936213 0.0 0.0 0.0 31.0" Properties=species:S:1:pos:R:3:spacegroup_kinds:I:1:atom_types:I:1 spacegroup="P 63/m m c" unit_cell=conventional occupancy="_JSON {\"0\": {\"Mo\": 1.0}, \"1\": {\"S\": 1.0}}" thickness=3.1718520000000003 dz=2.9751480000000003 pbc="T T T"
Mo       0.00000000       0.00000000      -3.08592600        0        0
S        1.58010500      -0.91190914      -4.67185200        1        2
S        1.58010500      -0.91190914      -1.50000000        1        1
Mo       3.16021000       0.00000000      -3.08592600        0        0
S        4.74031500      -0.91190914      -4.67185200        1        2
S        4.74031500      -0.91190914      -1.50000000        1        1
Mo       6.32042000       0.00000000      -3.08592600        0        0
S        7.90052500      -0.91190914      -4.67185200        1        2
S        7.90052500      -0.91190914      -1.50000000        1        1
Mo       9.48063000       0.00000000      -3.08592600        0        0
S       11.06073500      -0.91190914      -4.67185200        1        2
S       11.06073500      -0.91190914      -1.50000000        1        1
Mo      12.64084000       0.00000000      -3.08592600        0        0
S       14.22094500      -0.91190914      -4.67185200        1        2
S       14.22094500      -0.91190914      -1.50000000        1        1
Mo      15.80105000       0.00000000      -3.08592600        0        0
S       17.38115500      -0.91190914      -4.67185200        1        2
S       17.38115500      -0.91190914      -1.50000000        1        1
Mo      18.96126000       0.00000000      -3.08592600        0        0
S       20.54136500      -0.91190914      -4.67185200        1        2
S       20.54136500      -0.91190914      -1.50000000        1        1
Mo      22.12147000       0.00000000      -3.08592600        0        0
S       23.70157500      -0.91190914      -4.67185200        1        2
S       23.70157500      -0.91190914      -1.50000000        1        1
Mo      25.28168000       0.00000000      -3.08592600        0        0
S       26.86178500      -0.91190914      -4.67185200        1        2
S       26.86178500      -0.91190914      -1.50000000        1        1
Mo      28.44189000       0.00000000      -3.08592600        0        0
S       30.02199500      -0.91190914      -4.67185200        1        2
S       30.02199500      -0.91190914      -1.50000000        1        1
Mo      31.60210000       0.00000000      -3.08592600        0        0
S       33.18220500      -0.91190914      -4.67185200        1        2
S       33.18220500      -0.91190914      -1.50000000        1        1
Mo      34.76231000       0.00000000      -3.08592600        0        0
S       36.34241500      -0.91190914      -4.67185200        1        2
S       36.34241500      -0.91190914      -1.50000000        1        1
Mo      37.92252000       0.00000000      -3.08592600        0        0
S       39.50262500      -0.91190914      -4.67185200        1        2
S       39.50262500      -0.91190914      -1.50000000        1        1
Mo      41.08273000       0.00000000      -3.08592600        0        0
S       42.66283500      -0.91190914      -4.67185200        1        2
S       42.66283500      -0.91190914      -1.50000000        1        1
Mo      44.24294000       0.00000000      -3.08592600        0        0
S       45.82304500      -0.91190914      -4.67185200        1        2
S       45.82304500      -0.91190914      -1.50000000        1        1
Mo      47.40315000       0.00000000      -3.08592600        0        0
S       48.98325500      -0.91190914      -4.67185200        1        2
S       48.98325500      -0.91190914      -1.50000000        1        1
Mo      50.56336000       0.00000000      -3.08592600        0        0
S       52.14346500      -0.91190914      -4.67185200        1        2
S       52.14346500      -0.91190914      -1.50000000        1        1
Mo      53.72357000       0.00000000      -3.08592600        0        0
S       55.30367500      -0.91190914      -4.67185200        1        2
S       55.30367500      -0.91190914      -1.50000000        1        1
Mo      56.88378000       0.00000000      -3.08592600        0        0
S       58.46388500      -0.91190914      -4.67185200        1        2
S       58.46388500      -0.91190914      -1.50000000        1        1
Mo      60.04399000       0.00000000      -3.08592600        0        0
S       61.62409500      -0.91190914      -4.67185200        1        2
S       61.62409500      -0.91190914      -1.50000000        1        1
Mo      63.20420000       0.00000000      -3.08592600        0        0
S       64.78430500      -0.91190914      -4.67185200        1        2
S       64.78430500      -0.91190914      -1.50000000        1        1
Mo      66.36441000       0.00000000      -3.08592600        0        0
S       67.94451500      -0.91190914      -4.67185200        1        2
S       67.94451500      -0.91190914      -1.50000000        1        1
Mo      69.52462000       0.00000000      -3.08592600        0        0
S       71.10472500      -0.91190914      -4.67185200        1        2
S       71.10472500      -0.91190914      -1.50000000        1        1
Mo      72.68483000       0.00000000      -3.08592600        0        0
S       74.26493500      -0.91190914      -4.67185200        1        2
S       74.26493500      -0.91190914      -1.50000000        1        1
Mo      75.84504000       0.00000000      -3.08592600        0        0
S       77.42514500      -0.91190914      -4.67185200        1        2
S       77.42514500      -0.91190914      -1.50000000        1        1
Mo       0.00000000       0.00000000       3.08592600        0        3
S        1.53958138      -0.91190914       1.50000000        1        5
S        1.53958138      -0.91190914       4.67185200        1        4
Mo       3.03866346       0.00000000       3.08592600        0        3
S        4.57824485      -0.91190914       1.50000000        1        5
S        4.57824485      -0.91190914       4.67185200        1        4
Mo       6.07732692       0.00000000       3.08592600        0        3
S        7.61690831      -0.91190914       1.50000000        1        5
S        7.61690831      -0.91190914       4.67185200        1        4
Mo       9.11599038       0.00000000       3.08592600        0        3
S       10.65557177      -0.91190914       1.50000000        1        5
S       10.65557177      -0.91190914       4.67185200        1        4
Mo      12.15465385       0.00000000       3.08592600        0        3
S       13.69423523      -0.91190914       1.50000000        1        5
S       13.69423523      -0.91190914       4.67185200        1        4
Mo      15.19331731       0.00000000       3.08592600        0        3
S       16.73289869      -0.91190914       1.50000000        1        5
S       16.73289869      -0.91190914       4.67185200        1        4
Mo      18.23198077       0.00000000       3.08592600        0        3
S       19.77156215      -0.91190914       1.50000000        1        5
S       19.77156215      -0.91190914       4.67185200        1        4
Mo      21.27064423       0.00000000       3.08592600        0        3
S       22.81022561      -0.91190914       1.50000000        1        5
S       22.81022561      -0.91190914       4.67185200        1        4
Mo      24.30930769       0.00000000       3.08592600        0        3
S       25.84888908      -0.91190914       1.50000000        1        5
S       25.84888908      -0.91190914       4.67185200        1        4
Mo      27.34797115       0.00000000       3.08592600        0        3
S       28.88755254      -0.91190914       1.50000000        1        5
S       28.88755254      -0.91190914       4.67185200        1        4
Mo      30.38663462       0.00000000       3.08592600        0        3
S       31.92621600      -0.91190914       1.50000000        1        5
S       31.92621600      -0.91190914       4.67185200        1        4
Mo      33.42529808       0.00000000       3.08592600        0        3
S       34.96487946      -0.91190914       1.50000000        1        5
S       34.96487946      -0.91190914       4.67185200        1        4
Mo      36.46396154       0.00000000       3.08592600        0        3
S       38.00354292      -0.91190914       1.50000000        1        5
S       38.00354292      -0.91190914       4.67185200        1        4
Mo      39.50262500       0.00000000       3.08592600        0        3
S       41.04220638      -0.91190914       1.50000000        1        5
S       41.04220638      -0.91190914       4.67185200        1        4
Mo      42.54128846       0.00000000       3.08592600        0        3
S       44.08086985      -0.91190914       1.50000000        1        5
S       44.08086985      -0.91190914       4.67185200        1        4
Mo      45.57995192       0.00000000       3.08592600        0        3
S       47.11953331      -0.91190914       1.50000000        1        5
S       47.11953331      -0.91190914       4.67185200        1        4
Mo      48.61861538       0.00000000       3.08592600        0        3
S       50.15819677      -0.91190914       1.50000000        1        5
S       50.15819677      -0.91190914       4.67185200        1        4
Mo      51.65727885       0.00000000       3.08592600        0        3
S       53.19686023      -0.91190914       1.50000000        1        5
S       53.19686023      -0.91190914       4.67185200        1        4
Mo      54.69594231       0.00000000       3.08592600        0        3
S       56.23552369      -0.91190914       1.50000000        1        5
S       56.23552369      -0.91190914       4.67185200        1        4
Mo      57.73460577       0.00000000       3.08592600        0        3
S       59.27418715      -0.91190914       1.50000000        1        5
S       59.27418715      -0.91190914       4.67185200        1        4
Mo      60.77326923       0.00000000       3.08592600        0        3
S       62.31285061      -0.91190914       1.50000000        1        5
S       62.31285061      -0.91190914       4.67185200        1        4
Mo      63.81193269       0.00000000       3.08592600        0        3
S       65.35151408      -0.91190914       1.50000000        1        5
S       65.35151408      -0.91190914       4.67185200        1        4
Mo      66.85059615       0.00000000       3.08592600        0        3
S       68.39017754      -0.91190914       1.50000000        1        5
S       68.39017754      -0.91190914       4.67185200        1        4
Mo      69.88925962       0.00000000       3.08592600        0        3
S       71.42884100      -0.91190914       1.50000000        1        5
S       71.42884100      -0.91190914       4.67185200        1        4
Mo      72.92792308       0.00000000       3.08592600        0        3
S       74.46750446      -0.91190914       1.50000000        1        5
S       74.46750446      -0.91190914       4.67185200        1        4
Mo      75.96658654       0.00000000       3.08592600        0        3
S       77.50616792      -0.91190914       1.50000000        1        5
S       77.50616792      -0.91190914       4.67185200        1        4
